REMARK  0 active torsions:
REMARK  status: ('A' for Active; 'I' for Inactive)
ROOT
HETATM    1  O1  D48 A 402      63.631  61.722-122.973  0.70 39.78    -0.188 OA
HETATM    2  C1  D48 A 402      63.568  60.440-123.426  0.70 43.52     0.156 A 
HETATM    3  C2  D48 A 402      64.487  59.931-124.294  0.70 44.14     0.029 A 
HETATM    4  C3  D48 A 402      64.403  58.583-124.719  0.70 43.30     0.002 A 
HETATM    5  C4  D48 A 402      65.353  58.023-125.599  0.70 45.60     0.000 A 
HETATM    6  C5  D48 A 402      65.267  56.720-125.968  0.70 49.14     0.000 A 
HETATM    7  C6  D48 A 402      64.214  55.915-125.500  0.70 48.73     0.000 A 
HETATM    8  C7  D48 A 402      63.258  56.432-124.686  0.70 47.70     0.000 A 
HETATM    9  C8  D48 A 402      63.328  57.774-124.255  0.70 46.61     0.002 A 
HETATM   10  C9  D48 A 402      62.371  58.334-123.369  0.70 43.08     0.029 A 
HETATM   11  C10 D48 A 402      62.494  59.633-122.963  0.70 43.97     0.156 A 
HETATM   12  O2  D48 A 402      61.650  60.230-122.085  0.70 44.54    -0.188 OA
ENDROOT
TORSDOF 0
