REMARK  6 active torsions:
REMARK  status: ('A' for Active; 'I' for Inactive)
REMARK    1  A    between atoms: O6_3381  and  P_3360 
REMARK    2  A    between atoms: C1'_3363  and  N9_3376 
REMARK    3  A    between atoms: C4'_3366  and  C5'_3367 
REMARK    4  A    between atoms: C5'_3367  and  O5'_3374 
REMARK    5  A    between atoms: O5'_3374  and  PA_3370 
REMARK    6  A    between atoms: C6_3380  and  O6_3381 
ROOT
HETATM    1  C2  IMO A1601      27.847  83.656  26.116  1.00 16.75     0.202 A 
HETATM    2  N9  IMO A1601      30.313  85.969  24.918  1.00 17.47    -0.270 N 
HETATM    3  C4  IMO A1601      29.565  85.004  25.542  1.00 18.20     0.170 A 
HETATM    4  N3  IMO A1601      28.246  84.668  25.311  1.00 18.35    -0.205 NA
HETATM    5  N1  IMO A1601      28.581  82.986  27.049  1.00 18.65    -0.198 NA
HETATM    6  C6  IMO A1601      29.900  83.342  27.235  1.00 18.79     0.211 A 
HETATM    7  C5  IMO A1601      30.435  84.413  26.470  1.00 19.66     0.158 A 
HETATM    8  N7  IMO A1601      31.687  85.008  26.434  1.00 18.04    -0.219 NA
HETATM    9  C8  IMO A1601      31.569  85.919  25.506  1.00 16.80     0.182 A 
ENDROOT
BRANCH   2  10
HETATM   10  C1' IMO A1601      29.880  86.858  23.837  1.00 17.10     0.241 C 
HETATM   11  C2' IMO A1601      29.528  88.293  24.206  1.00 19.44     0.234 C 
HETATM   12  O2' IMO A1601      28.178  88.384  24.611  1.00 20.01    -0.216 OA
HETATM   13  C3' IMO A1601      29.750  88.957  22.839  1.00 19.24     0.216 C 
HETATM   14  O3' IMO A1601      28.694  88.697  21.906  1.00 20.47    -0.218 OA
HETATM   15  C4' IMO A1601      31.005  88.254  22.333  1.00 18.78     0.181 C 
HETATM   16  O4' IMO A1601      31.010  86.961  22.977  1.00 18.29    -0.331 OA
BRANCH  15  17
HETATM   17  C5' IMO A1601      32.301  88.994  22.624  1.00 18.35     0.188 C 
BRANCH  17  18
HETATM   18  O5' IMO A1601      32.291  89.505  23.985  1.00 15.80    -0.261 OA
BRANCH  18  19
HETATM   19  PA  IMO A1601      33.619  89.511  24.916  1.00 16.98     0.423 P 
HETATM   20  O1A IMO A1601      33.240  90.121  26.242  1.00 19.32    -0.617 OA
HETATM   21  O2A IMO A1601      34.644  90.322  24.131  1.00 16.92    -0.617 OA
HETATM   22  O3A IMO A1601      34.079  88.081  25.112  1.00 17.28    -0.617 OA
ENDBRANCH  18  19
ENDBRANCH  17  18
ENDBRANCH  15  17
ENDBRANCH   2  10
BRANCH   6  23
HETATM   23  O6  IMO A1601      30.714  82.646  27.865  1.00 17.77    -0.218 OA
BRANCH  23  24
HETATM   24  P   IMO A1601      30.370  81.355  28.818  1.00 19.45     0.428 P 
HETATM   25  O1  IMO A1601      29.586  81.871  29.996  1.00 18.38    -0.616 OA
HETATM   26  O2  IMO A1601      31.701  80.803  29.293  1.00 18.96    -0.616 OA
HETATM   27  O3  IMO A1601      29.573  80.345  27.990  1.00 17.81    -0.616 OA
ENDBRANCH  23  24
ENDBRANCH   6  23
TORSDOF 6
