REMARK  7 active torsions:
REMARK  status: ('A' for Active; 'I' for Inactive)
REMARK    1  A    between atoms: O_1  and  C_23 
REMARK    2  A    between atoms: O_2  and  C_24 
REMARK    3  A    between atoms: O_3  and  C_27 
REMARK    4  A    between atoms: O_4  and  C_28 
REMARK    5  A    between atoms: O_9  and  C_33 
REMARK    6  A    between atoms: O_10  and  C_34 
REMARK    7  A    between atoms: C_11  and  C_12 
ROOT
HETATM    1  O   UNL     1      -0.868   0.152  -1.675  1.00  0.00    -0.287 OA
HETATM    2  O   UNL     1      -4.823  -0.115   1.907  1.00  0.00    -0.286 OA
HETATM    3  C   UNL     1      -0.563  -1.694   0.461  1.00  0.00     0.026 A 
HETATM    4  C   UNL     1      -1.683  -0.868   0.310  1.00  0.00     0.046 A 
HETATM    5  C   UNL     1      -2.724  -0.929   1.238  1.00  0.00     0.063 A 
HETATM    6  C   UNL     1      -2.940   0.931  -0.981  1.00  0.00     0.032 A 
HETATM    7  C   UNL     1      -1.754   0.063  -0.835  1.00  0.00     0.195 A 
HETATM    8  C   UNL     1      -3.981   0.870  -0.052  1.00  0.00     0.062 A 
HETATM    9  C   UNL     1      -0.488  -2.578   1.538  1.00  0.00     0.080 A 
HETATM   10  C   UNL     1      -3.911  -0.062   1.092  1.00  0.00     0.199 A 
HETATM   11  C   UNL     1      -2.645  -1.817   2.318  1.00  0.00     0.083 A 
HETATM   12  C   UNL     1      -1.528  -2.639   2.465  1.00  0.00     0.075 A 
HETATM   13  C   UNL     1      -3.019   1.819  -2.060  1.00  0.00     0.023 A 
HETATM   14  C   UNL     1      -5.101   1.697  -0.203  1.00  0.00     0.081 A 
HETATM   15  C   UNL     1      -4.136   2.642  -2.206  1.00  0.00    -0.058 A 
HETATM   16  C   UNL     1      -5.175   2.581  -1.279  1.00  0.00     0.044 A 
HETATM   17  C   UNL     1      -4.219   3.588  -3.356  1.00  0.00     0.048 C 
ENDROOT
BRANCH   3  18
HETATM   18  C   UNL     1       0.563  -1.695  -0.461  1.00  0.00     0.026 A 
HETATM   19  C   UNL     1       1.683  -0.868  -0.310  1.00  0.00     0.046 A 
HETATM   20  C   UNL     1       2.724  -0.929  -1.238  1.00  0.00     0.063 A 
HETATM   21  C   UNL     1       1.754   0.063   0.835  1.00  0.00     0.195 A 
HETATM   22  C   UNL     1       3.911  -0.062  -1.092  1.00  0.00     0.199 A 
HETATM   23  C   UNL     1       2.645  -1.817  -2.318  1.00  0.00     0.083 A 
HETATM   24  O   UNL     1       4.823  -0.115  -1.907  1.00  0.00    -0.286 OA
HETATM   25  C   UNL     1       3.981   0.870   0.052  1.00  0.00     0.062 A 
HETATM   26  C   UNL     1       2.940   0.931   0.981  1.00  0.00     0.032 A 
HETATM   27  C   UNL     1       5.101   1.697   0.203  1.00  0.00     0.081 A 
HETATM   28  C   UNL     1       3.019   1.819   2.060  1.00  0.00     0.023 A 
HETATM   29  C   UNL     1       4.136   2.642   2.206  1.00  0.00    -0.058 A 
HETATM   30  C   UNL     1       5.175   2.581   1.279  1.00  0.00     0.044 A 
HETATM   31  C   UNL     1       4.219   3.588   3.356  1.00  0.00     0.048 C 
HETATM   32  C   UNL     1       1.528  -2.639  -2.465  1.00  0.00     0.075 A 
HETATM   33  C   UNL     1       0.488  -2.578  -1.538  1.00  0.00     0.080 A 
HETATM   34  O   UNL     1       0.868   0.152   1.675  1.00  0.00    -0.287 OA
BRANCH  27  35
HETATM   35  O   UNL     1       6.153   1.688  -0.664  1.00  0.00    -0.360 OA
HETATM   36  H   UNL     1       6.011   1.041  -1.372  1.00  0.00     0.217 HD
ENDBRANCH  27  35
BRANCH  23  37
HETATM   37  O   UNL     1       3.624  -1.929  -3.261  1.00  0.00    -0.360 OA
HETATM   38  H   UNL     1       3.370  -2.600  -3.918  1.00  0.00     0.217 HD
ENDBRANCH  23  37
BRANCH  33  39
HETATM   39  O   UNL     1      -0.587  -3.398  -1.720  1.00  0.00    -0.360 OA
HETATM   40  H   UNL     1      -1.269  -3.262  -1.045  1.00  0.00     0.217 HD
ENDBRANCH  33  39
ENDBRANCH   3  18
BRANCH   9  41
HETATM   41  O   UNL     1       0.587  -3.398   1.720  1.00  0.00    -0.360 OA
HETATM   42  H   UNL     1       1.269  -3.262   1.045  1.00  0.00     0.217 HD
ENDBRANCH   9  41
BRANCH  11  43
HETATM   43  O   UNL     1      -3.624  -1.929   3.261  1.00  0.00    -0.360 OA
HETATM   44  H   UNL     1      -3.370  -2.600   3.918  1.00  0.00     0.217 HD
ENDBRANCH  11  43
BRANCH  14  45
HETATM   45  O   UNL     1      -6.153   1.688   0.664  1.00  0.00    -0.360 OA
HETATM   46  H   UNL     1      -6.011   1.041   1.372  1.00  0.00     0.217 HD
ENDBRANCH  14  45
TORSDOF 7
