REMARK  15 active torsions:
REMARK  status: ('A' for Active; 'I' for Inactive)
REMARK    1  A    between atoms: C1_3703  and  CA1_3702 
REMARK    2  A    between atoms: CA1_3702  and  CB1_3706 
REMARK    3  A    between atoms: CB1_3706  and  CG1_3707 
REMARK    4  A    between atoms: CD1_3708  and  CG1_3707 
REMARK    5  A    between atoms: CA2_3711  and  N2_3710 
REMARK    6  A    between atoms: C2_3712  and  CA2_3711 
REMARK    7  A    between atoms: CA2_3711  and  CB2_3714 
REMARK    8  A    between atoms: CB2_3714  and  SG2_3715 
REMARK    9  A    between atoms: C1S_3716  and  SG2_3715 
REMARK   10  A    between atoms: C1S_3716  and  C2S_3717 
REMARK   11  A    between atoms: C2S_3717  and  C3S_3718 
REMARK   12  A    between atoms: C3S_3718  and  C4S_3719 
REMARK   13  A    between atoms: C4S_3719  and  C5S_3720 
REMARK   14  A    between atoms: CA3_3723  and  N3_3722 
REMARK   15  A    between atoms: C3_3724  and  CA3_3723 
ROOT
HETATM    1  CA2 GTX B 212      12.060  -1.982  17.488  1.00 44.08     0.182 C 
ENDROOT
BRANCH   1   2
HETATM    2  C2  GTX B 212      13.180  -2.948  17.297  1.00 42.77     0.209 C 
HETATM    3  O2  GTX B 212      13.722  -3.604  18.393  1.00 38.09    -0.172 OA
HETATM    4  N3  GTX B 212      13.584  -3.136  16.060  1.00 45.99    -0.237 NA
BRANCH   4   5
HETATM    5  CA3 GTX B 212      14.629  -4.091  15.733  1.00 49.33     0.224 C 
BRANCH   5   6
HETATM    6  C3  GTX B 212      14.132  -5.329  15.028  1.00 50.95     0.211 C 
HETATM    7  O31 GTX B 212      15.031  -6.085  14.484  1.00 51.79    -0.646 OA
HETATM    8  O32 GTX B 212      12.866  -5.677  14.952  1.00 54.86    -0.646 OA
ENDBRANCH   5   6
ENDBRANCH   4   5
ENDBRANCH   1   2
BRANCH   1   9
HETATM    9  N2  GTX B 212      11.423  -2.264  18.758  1.00 43.10    -0.243 NA
HETATM   10  CD1 GTX B 212      10.112  -2.207  18.910  1.00 42.43     0.186 C 
HETATM   11  OE1 GTX B 212       9.294  -2.116  17.787  1.00 41.44    -0.174 OA
BRANCH  10  12
HETATM   12  CG1 GTX B 212       9.594  -2.208  20.345  1.00 39.89     0.077 C 
BRANCH  12  13
HETATM   13  CB1 GTX B 212       8.079  -2.156  20.420  1.00 37.66     0.059 C 
BRANCH  13  14
HETATM   14  CA1 GTX B 212       7.574  -2.471  21.818  1.00 37.50     0.388 C 
HETATM   15  N1  GTX B 212       6.112  -2.566  21.788  1.00 36.95     0.628 N 
BRANCH  14  16
HETATM   16  C1  GTX B 212       7.985  -1.376  22.766  1.00 34.91     0.224 C 
HETATM   17  O11 GTX B 212       7.122  -0.437  23.022  1.00 34.90    -0.646 OA
HETATM   18  O12 GTX B 212       9.175  -1.341  23.309  1.00 32.77    -0.646 OA
ENDBRANCH  14  16
ENDBRANCH  13  14
ENDBRANCH  12  13
ENDBRANCH  10  12
ENDBRANCH   1   9
BRANCH   1  19
HETATM   19  CB2 GTX B 212      12.536  -0.524  17.449  1.00 45.02     0.090 C 
BRANCH  19  20
HETATM   20  SG2 GTX B 212      11.218   0.667  17.831  1.00 45.36    -0.138 SA
BRANCH  20  21
HETATM   21  C1S GTX B 212      10.353   0.635  16.225  1.00 48.63     0.058 C 
BRANCH  21  22
HETATM   22  C2S GTX B 212       9.081   1.507  16.256  1.00 50.63     0.012 C 
BRANCH  22  23
HETATM   23  C3S GTX B 212       9.297   2.847  15.567  1.00 52.62     0.001 C 
BRANCH  23  24
HETATM   24  C4S GTX B 212       8.270   3.915  15.940  1.00 53.84     0.000 C 
BRANCH  24  25
HETATM   25  C5S GTX B 212       8.923   5.092  16.674  1.00 55.77     0.000 C 
HETATM   26  C6S GTX B 212       8.614   6.444  16.046  1.00 56.05     0.000 C 
ENDBRANCH  24  25
ENDBRANCH  23  24
ENDBRANCH  22  23
ENDBRANCH  21  22
ENDBRANCH  20  21
ENDBRANCH  19  20
ENDBRANCH   1  19
TORSDOF 15
