REMARK  2 active torsions:
REMARK  status: ('A' for Active; 'I' for Inactive)
REMARK    1  A    between atoms: C4_4548  and  C7_4551 
REMARK    2  A    between atoms: C15_4559  and  C5_4549 
ROOT
HETATM    1  N1  CP6 A 609      29.832   4.301  56.493  1.00 18.00    -0.194 NA
HETATM    2  C2  CP6 A 609      29.163   5.103  55.552  1.00 17.14     0.239 A 
HETATM    3  C3  CP6 A 609      29.453   4.340  57.804  1.00 20.02     0.187 A 
HETATM    4  C4  CP6 A 609      28.379   5.220  58.299  1.00 21.22     0.051 A 
HETATM    5  C5  CP6 A 609      27.706   6.027  57.238  1.00 23.03     0.065 A 
HETATM    6  N6  CP6 A 609      28.124   5.980  55.902  1.00 19.22    -0.219 NA
HETATM    7  N13 CP6 A 609      30.088   3.599  58.737  1.00 13.94    -0.127 N 
HETATM    8  N14 CP6 A 609      29.583   5.034  54.209  1.00 16.83    -0.060 NA
ENDROOT
BRANCH   4   9
HETATM    9  C7  CP6 A 609      27.950   5.289  59.687  1.00 23.59     0.004 A 
HETATM   10  C12 CP6 A 609      27.266   4.198  60.344  1.00 26.89     0.001 A 
HETATM   11  C11 CP6 A 609      26.844   4.272  61.712  1.00 26.94     0.011 A 
HETATM   12  C10 CP6 A 609      27.126   5.487  62.421  1.00 26.64     0.058 A 
HETATM   13 CL1  CP6 A 609      26.680   5.738  64.006  1.00 30.15    -0.082 Cl
HETATM   14  C9  CP6 A 609      27.797   6.566  61.816  1.00 24.84     0.011 A 
HETATM   15  C8  CP6 A 609      28.206   6.467  60.476  1.00 24.10     0.001 A 
ENDBRANCH   4   9
BRANCH   5  16
HETATM   16  C15 CP6 A 609      26.529   6.981  57.605  1.00 22.10     0.046 C 
HETATM   17  C16 CP6 A 609      25.865   7.816  56.551  1.00 27.93     0.007 C 
ENDBRANCH   5  16
TORSDOF 2
