REMARK  10 active torsions:
REMARK  status: ('A' for Active; 'I' for Inactive)
REMARK    1  A    between atoms: C1'_1142  and  N1_1134 
REMARK    2  A    between atoms: C4'_1146  and  C5'_1149 
REMARK    3  A    between atoms: C5'_1149  and  O5'_1150 
REMARK    4  A    between atoms: O5'_1150  and  PA_1151 
REMARK    5  A    between atoms: O3A_1154  and  PA_1151 
REMARK    6  A    between atoms: O3A_1154  and  PB_1155 
REMARK    7  A    between atoms: O1B_1156  and  PB_1155 
REMARK    8  A    between atoms: C14_1159  and  O1B_1156 
REMARK    9  A    between atoms: C14_1159  and  C15_1160 
REMARK   10  A    between atoms: C15_1160  and  N11_1161 
ROOT
HETATM    1  C5' CDC B 801      14.774  38.789  72.353  1.00 31.02     0.187 C 
ENDROOT
BRANCH   1   2
HETATM    2  C4' CDC B 801      15.217  40.094  71.671  1.00 31.65     0.181 C 
HETATM    3  C3' CDC B 801      14.640  41.358  72.324  1.00 32.30     0.216 C 
HETATM    4  C2' CDC B 801      13.498  41.749  71.419  1.00 33.22     0.234 C 
HETATM    5  O3' CDC B 801      15.589  42.398  72.298  1.00 29.81    -0.218 OA
HETATM    6  C1' CDC B 801      14.027  41.214  70.070  1.00 31.82     0.242 C 
HETATM    7  O2' CDC B 801      13.417  43.187  71.322  1.00 33.50    -0.216 OA
HETATM    8  O4' CDC B 801      14.488  39.953  70.474  1.00 32.60    -0.331 OA
BRANCH   6   9
HETATM    9  N1  CDC B 801      12.948  41.152  69.079  1.00 28.47    -0.254 N 
HETATM   10  C2  CDC B 801      12.810  42.036  68.099  1.00 29.94     0.353 A 
HETATM   11  N3  CDC B 801      11.769  41.908  67.183  1.00 31.06    -0.171 NA
HETATM   12  O2  CDC B 801      13.602  42.954  67.926  1.00 33.03    -0.244 OA
HETATM   13  C4  CDC B 801      10.844  40.912  67.339  1.00 31.94     0.190 A 
HETATM   14  C5  CDC B 801      10.966  40.029  68.379  1.00 31.20     0.060 A 
HETATM   15  N4  CDC B 801       9.839  40.789  66.536  1.00 32.07    -0.127 N 
HETATM   16  C6  CDC B 801      12.033  40.146  69.238  1.00 28.64     0.085 A 
ENDBRANCH   6   9
ENDBRANCH   1   2
BRANCH   1  17
HETATM   17  O5' CDC B 801      13.361  38.793  72.471  1.00 28.49    -0.268 OA
BRANCH  17  18
HETATM   18  PA  CDC B 801      12.677  37.519  73.128  1.00 29.45     0.418 P 
HETATM   19  O1A CDC B 801      13.368  36.213  72.869  1.00 28.89    -0.624 OA
HETATM   20  O2A CDC B 801      11.235  37.617  72.851  1.00 29.31    -0.624 OA
BRANCH  18  21
HETATM   21  O3A CDC B 801      12.876  37.623  74.640  1.00 37.80    -0.180 OA
BRANCH  21  22
HETATM   22  PB  CDC B 801      12.328  38.700  75.681  1.00 35.70     0.418 P 
HETATM   23  O2B CDC B 801      11.294  37.801  76.453  1.00 32.49    -0.624 OA
HETATM   24  O3B CDC B 801      11.932  40.071  75.100  1.00 39.30    -0.624 OA
BRANCH  22  25
HETATM   25  O1B CDC B 801      13.618  39.009  76.489  1.00 44.39    -0.269 OA
BRANCH  25  26
HETATM   26  C14 CDC B 801      13.764  38.174  77.495  1.00 44.39     0.187 C 
BRANCH  26  27
HETATM   27  C15 CDC B 801      14.968  38.704  78.223  1.00 42.48     0.250 C 
BRANCH  27  28
HETATM   28  N11 CDC B 801      14.821  38.157  79.597  1.00 42.84     0.002 N 
HETATM   29  C16 CDC B 801      16.131  37.850  80.170  1.00 42.34     0.250 C 
HETATM   30  C17 CDC B 801      14.048  36.867  79.715  1.00 42.15     0.250 C 
HETATM   31  C18 CDC B 801      14.140  39.169  80.418  1.00 42.54     0.250 C 
ENDBRANCH  27  28
ENDBRANCH  26  27
ENDBRANCH  25  26
ENDBRANCH  22  25
ENDBRANCH  21  22
ENDBRANCH  18  21
ENDBRANCH  17  18
ENDBRANCH   1  17
TORSDOF 10
