REMARK  6 active torsions:
REMARK  status: ('A' for Active; 'I' for Inactive)
REMARK    1  A    between atoms: B1_2461  and  C4_2469 
REMARK    2  A    between atoms: C1_2462  and  C2_2465 
REMARK    3  A    between atoms: C2_2465  and  C5_2471 
REMARK    4  A    between atoms: C3_2467  and  C4_2469 
REMARK    5  A    between atoms: C3_2467  and  C7_2473 
REMARK    6  A    between atoms: C5_2471  and  C7_2473 
ROOT
HETATM    1  C5  FB6 A 414      37.345 -17.314  24.696  1.00 39.24     0.048 C 
ENDROOT
BRANCH   1   2
HETATM    2  C2  FB6 A 414      35.945 -17.505  24.190  1.00 42.74     0.345 C 
HETATM    3  C6  FB6 A 414      35.127 -18.431  25.045  1.00 49.72     0.050 C 
HETATM    4  N1  FB6 A 414      35.872 -17.788  22.772  1.00 38.43     0.625 N 
BRANCH   2   5
HETATM    5  C1  FB6 A 414      35.282 -16.133  24.352  1.00 42.38     0.221 C 
HETATM    6  O1  FB6 A 414      34.730 -15.597  23.399  1.00 40.53    -0.646 OA
HETATM    7  O4  FB6 A 414      35.251 -15.535  25.589  1.00 40.25    -0.646 OA
ENDBRANCH   2   5
ENDBRANCH   1   2
BRANCH   1   8
HETATM    8  C7  FB6 A 414      38.188 -16.287  24.024  1.00 40.55     0.002 C 
BRANCH   8   9
HETATM    9  C3  FB6 A 414      39.634 -16.273  24.371  1.00 36.36    -0.007 C 
BRANCH   9  10
HETATM   10  C4  FB6 A 414      40.396 -15.024  24.092  1.00 36.80     0.017 C 
BRANCH  10  11
HETATM   11  B1  FB6 A 414      41.928 -15.223  23.689  1.00 35.62     0.560 B 
HETATM   12  O3  FB6 A 414      42.290 -15.336  22.371  1.00 22.92    -0.285 OA
HETATM   13  O2  FB6 A 414      42.861 -15.331  24.682  1.00 33.76    -0.285 OA
ENDBRANCH  10  11
ENDBRANCH   9  10
ENDBRANCH   8   9
ENDBRANCH   1   8
TORSDOF 6
