REMARK  7 active torsions:
REMARK  status: ('A' for Active; 'I' for Inactive)
REMARK    1  A    between atoms: C12_1  and  O21_21 
REMARK    2  A    between atoms: C12_1  and  C14_2 
REMARK    3  A    between atoms: C14_2  and  C15_12 
REMARK    4  A    between atoms: C03_4  and  O02_18 
REMARK    5  A    between atoms: C05_6  and  O13_20 
REMARK    6  A    between atoms: C06_7  and  C09_10 
REMARK    7  A    between atoms: C09_10  and  C11_11 
ROOT
HETATM    1  C09 HV6 A1001     152.318 171.757 141.649  1.00 36.92     0.187 C 
HETATM    2  O10 HV6 A1001     152.472 171.740 140.481  1.00 36.92    -0.287 OA
ENDROOT
BRANCH   1   3
HETATM    3  C06 HV6 A1001     150.879 171.813 142.150  1.00 36.92     0.047 A 
HETATM    4  C05 HV6 A1001     149.820 172.179 141.337  1.00 36.92     0.082 A 
HETATM    5  C04 HV6 A1001     148.555 172.205 141.849  1.00 36.92     0.074 A 
HETATM    6  C03 HV6 A1001     148.278 171.870 143.142  1.00 36.92     0.070 A 
HETATM    7  C08 HV6 A1001     149.320 171.500 143.938  1.00 36.92     0.038 A 
HETATM    8  C07 HV6 A1001     150.597 171.472 143.452  1.00 36.92     0.021 A 
BRANCH   4   9
HETATM    9  O13 HV6 A1001     149.935 172.546 139.996  1.00 36.92    -0.360 OA
HETATM   10  H8  HV6 A1001     149.240 172.331 139.558  1.00 36.92     0.217 HD
ENDBRANCH   4   9
BRANCH   6  11
HETATM   11  O02 HV6 A1001     146.973 171.894 143.632  1.00 36.92    -0.356 OA
HETATM   12  C01 HV6 A1001     146.426 173.168 143.757  1.00 36.92     0.210 C 
ENDBRANCH   6  11
ENDBRANCH   1   3
BRANCH   1  13
HETATM   13  C11 HV6 A1001     153.519 171.702 142.613  1.00 36.92     0.094 C 
HETATM   14  C12 HV6 A1001     154.760 171.683 142.178  1.00 36.92     0.128 C 
BRANCH  14  15
HETATM   15  O21 HV6 A1001     155.044 171.686 140.835  1.00 36.92    -0.359 OA
HETATM   16  H9  HV6 A1001     155.572 171.046 140.723  1.00 36.92     0.217 HD
ENDBRANCH  14  15
BRANCH  14  17
HETATM   17  C14 HV6 A1001     155.997 171.619 143.057  1.00 36.92     0.387 C 
HETATM   18  F19 HV6 A1001     155.873 170.797 144.126  1.00 36.92    -0.188 F 
HETATM   19  F20 HV6 A1001     157.009 171.134 142.292  1.00 36.92    -0.188 F 
BRANCH  17  20
HETATM   20  C15 HV6 A1001     156.393 172.997 143.523  1.00 36.92     0.461 C 
HETATM   21  F16 HV6 A1001     157.457 172.819 144.343  1.00 36.92    -0.165 F 
HETATM   22  F17 HV6 A1001     156.737 173.767 142.453  1.00 36.92    -0.165 F 
HETATM   23  F18 HV6 A1001     155.368 173.568 144.206  1.00 36.92    -0.165 F 
ENDBRANCH  17  20
ENDBRANCH  14  17
ENDBRANCH   1  13
TORSDOF 7
