REMARK  5 active torsions:
REMARK  status: ('A' for Active; 'I' for Inactive)
REMARK       I    between atoms: C11_7336  and  N12_7321 
REMARK    1  A    between atoms: C13_7322  and  N12_7321 
REMARK    2  A    between atoms: C04_7330  and  C05_7331 
REMARK    3  A    between atoms: C08_7334  and  C09_7335 
REMARK    4  A    between atoms: C09_7335  and  C19_7339 
REMARK    5  A    between atoms: C09_7335  and  N10_7345 
REMARK       I    between atoms: C11_7336  and  N10_7345 
REMARK       I    between atoms: C19_7339  and  N20_7346 
ROOT
HETATM    1  C24 X0I A1101      13.555 121.653  15.414  1.00 11.44    -0.000 A 
HETATM    2  C05 X0I A1101      13.261 120.584  16.312  1.00  9.61     0.000 A 
HETATM    3  C06 X0I A1101      13.381 119.254  15.938  1.00 10.99    -0.000 A 
HETATM    4  C07 X0I A1101      13.776 118.947  14.621  1.00 11.90    -0.002 A 
HETATM    5  C08 X0I A1101      14.036 120.005  13.714  1.00  8.53     0.009 A 
HETATM    6  C23 X0I A1101      13.928 121.345  14.091  1.00  7.99    -0.002 A 
ENDROOT
BRANCH   5   7
HETATM    7  C09 X0I A1101      14.512 119.618  12.267  1.00 11.30     0.213 C 
BRANCH   7   8
HETATM    8  C19 X0I A1101      13.621 119.947  11.126  1.00  9.74     0.308 C 
HETATM    9  O22 X0I A1101      12.743 119.219  10.786  1.00 10.01    -0.266 OA
HETATM   10  N20 X0I A1101      13.895 121.168  10.508  1.00  8.79    -0.056 NA
HETATM   11  O21 X0I A1101      13.107 121.522   9.440  1.00  9.12    -0.058 OA
ENDBRANCH   7   8
BRANCH   7  12
HETATM   12  N10 X0I A1101      15.020 118.269  12.316  1.00 10.65    -0.205 NA
HETATM   13  C11 X0I A1101      16.430 118.071  12.471  1.00 11.18     0.361 C 
HETATM   14  N12 X0I A1101      16.849 116.675  12.565  1.00 12.99    -0.220 NA
HETATM   15  O18 X0I A1101      17.201 118.982  12.487  1.00 10.23    -0.243 OA
BRANCH  14  16
HETATM   16  C13 X0I A1101      15.780 115.624  12.511  1.00 13.23     0.108 C 
HETATM   17  C14 X0I A1101      15.155 115.449  13.717  1.00 16.99     0.025 C 
HETATM   18  C15 X0I A1101      14.689 113.892  13.724  1.00 18.38     0.002 C 
HETATM   19  C16 X0I A1101      15.630 113.178  12.636  1.00 20.57     0.002 C 
HETATM   20  C17 X0I A1101      16.496 114.138  12.156  1.00 17.00     0.025 C 
ENDBRANCH  14  16
ENDBRANCH   7  12
ENDBRANCH   5   7
BRANCH   2  21
HETATM   21  C04 X0I A1101      12.909 120.823  17.761  1.00  8.63     0.005 A 
HETATM   22  C03 X0I A1101      11.763 120.249  18.392  1.00  9.54     0.032 A 
HETATM   23  C02 X0I A1101      11.595 120.514  19.727  1.00  9.85     0.170 A 
HETATM   24  F01 X0I A1101      10.522 120.034  20.369  1.00 11.51    -0.202 F 
HETATM   25  C28 X0I A1101      12.533 121.289  20.465  1.00 10.49     0.195 A 
HETATM   26  C26 X0I A1101      13.643 121.811  19.846  1.00 11.06     0.170 A 
HETATM   27  F29 X0I A1101      12.325 121.522  21.832  1.00 12.65    -0.199 F 
HETATM   28  C25 X0I A1101      13.843 121.573  18.475  1.00  8.44     0.032 A 
HETATM   29  F27 X0I A1101      14.541 122.549  20.570  1.00 10.74    -0.202 F 
ENDBRANCH   2  21
TORSDOF 5
