REMARK  1 active torsions:
REMARK  status: ('A' for Active; 'I' for Inactive)
REMARK    1  A    between atoms: CAD_5062  and  CAG_5061 
ROOT
HETATM    1  CAN JUT D 401      -1.682  54.806 -23.969  1.00 39.48     0.034 A 
HETATM    2  CAL JUT D 401      -1.508  54.972 -22.591  1.00 42.05     0.168 A 
HETATM    3  FAM JUT D 401      -1.944  54.091 -21.527  1.00 47.28    -0.202 F 
HETATM    4  CAJ JUT D 401      -0.883  56.104 -22.067  1.00 42.07     0.167 A 
HETATM    5  FAK JUT D 401      -0.692  56.359 -20.794  1.00 42.12    -0.202 F 
HETATM    6  CAI JUT D 401      -0.404  57.072 -22.874  1.00 43.31     0.032 A 
HETATM    7  CAH JUT D 401      -0.546  56.933 -24.200  1.00 42.37     0.004 A 
HETATM    8  CAG JUT D 401      -1.196  55.882 -24.771  1.00 42.96     0.021 A 
ENDROOT
BRANCH   8   9
HETATM    9  CAD JUT D 401      -1.163  56.060 -26.116  1.00 47.29     0.090 A 
HETATM   10  NAC JUT D 401      -0.766  57.259 -26.768  1.00 46.00    -0.219 NA
HETATM   11  CAB JUT D 401      -0.788  57.154 -28.122  1.00 44.77     0.215 A 
HETATM   12  SAF JUT D 401      -1.292  55.585 -28.527  1.00 57.80    -0.045 SA
HETATM   13  NAA JUT D 401      -0.500  57.982 -29.064  1.00 41.40    -0.120 N 
HETATM   14  CAE JUT D 401      -1.487  55.027 -26.940  1.00 50.65     0.058 A 
ENDBRANCH   8   9
TORSDOF 1
