REMARK  1 active torsions:
REMARK  status: ('A' for Active; 'I' for Inactive)
REMARK    1  A    between atoms: C6_8  and  C7_9 
ROOT
HETATM    1  N1  ORO A1003     -15.346  -9.418  -7.790  1.00 27.35    -0.303 N 
HETATM    2  C2  ORO A1003     -15.674 -10.448  -6.953  1.00 30.48     0.327 A 
HETATM    3  O2  ORO A1003     -16.082 -11.491  -7.411  1.00 31.30    -0.247 OA
HETATM    4  N3  ORO A1003     -15.542 -10.303  -5.594  1.00 32.11    -0.275 N 
HETATM    5  C4  ORO A1003     -15.093  -9.149  -5.086  1.00 31.31     0.251 A 
HETATM    6  O4  ORO A1003     -14.976  -9.016  -3.896  1.00 31.43    -0.268 OA
HETATM    7  C5  ORO A1003     -14.763  -8.111  -5.931  1.00 28.65     0.111 A 
HETATM    8  C6  ORO A1003     -14.893  -8.256  -7.282  1.00 26.59     0.118 A 
HETATM    9  HN1 ORO A1003     -15.439  -9.523  -8.729  1.00 32.82     0.171 HD
HETATM   10  HN3 ORO A1003     -15.769 -11.016  -5.018  1.00 38.54     0.173 HD
ENDROOT
BRANCH   8  11
HETATM   11  C7  ORO A1003     -14.529  -7.101  -8.207  1.00 26.73     0.227 C 
HETATM   12  O71 ORO A1003     -13.527  -7.185  -8.944  1.00 24.51    -0.643 OA
HETATM   13  O72 ORO A1003     -15.237  -6.063  -8.230  1.00 30.09    -0.643 OA
ENDBRANCH   8  11
TORSDOF 1
