REMARK  1 active torsions:
REMARK  status: ('A' for Active; 'I' for Inactive)
REMARK    1  A    between atoms: C1_2442  and  C3_2444 
ROOT
HETATM    1  C3  GBD A 401      25.630  19.713   3.594  1.00 37.18     0.199 C 
HETATM    2  N2  GBD A 401      26.511  18.828   3.128  1.00 38.15    -0.182 NA
HETATM    3  S1  GBD A 401      26.615  17.516   4.124  1.00 39.07     0.119 SA
HETATM    4  C4  GBD A 401      25.149  19.251   4.916  1.00 38.16     0.245 C 
HETATM    5  O4  GBD A 401      24.170  19.987   5.743  1.00 37.84    -0.167 OA
HETATM    6  N5  GBD A 401      25.675  18.107   5.345  1.00 38.43    -0.163 NA
ENDROOT
BRANCH   1   7
HETATM    7  C1  GBD A 401      25.179  20.956   2.925  1.00 36.28     0.234 C 
HETATM    8  O13 GBD A 401      24.049  21.386   3.075  1.00 35.62    -0.643 OA
HETATM    9  O11 GBD A 401      26.038  21.577   2.129  1.00 35.55    -0.643 OA
ENDBRANCH   1   7
TORSDOF 1
