REMARK  5 active torsions:
REMARK  status: ('A' for Active; 'I' for Inactive)
REMARK    1  A    between atoms: CAI_5570  and  CAJ_5571 
REMARK    2  A    between atoms: CAI_5570  and  CAL_5573 
REMARK    3  A    between atoms: CAJ_5571  and  CAM_5574 
REMARK    4  A    between atoms: CAN_5575  and  OAK_5572 
REMARK    5  A    between atoms: CAM_5574  and  CAP_5577 
ROOT
HETATM    1  OAE HMZ A 500      20.283  36.462  14.609  1.00 77.17    -0.190 OA
HETATM    2  CAF HMZ A 500      19.835  32.902  12.483  1.00 73.70     0.024 A 
HETATM    3  CAG HMZ A 500      20.815  33.027  13.441  1.00 79.49     0.007 A 
HETATM    4  CAH HMZ A 500      19.174  35.113  12.952  1.00 67.49     0.052 A 
HETATM    5  CAN HMZ A 500      19.009  33.957  12.214  1.00 69.70     0.096 A 
HETATM    6  CAO HMZ A 500      20.145  35.271  13.911  1.00 75.26     0.136 A 
HETATM    7  CAP HMZ A 500      20.983  34.200  14.180  1.00 77.89     0.060 A 
ENDROOT
BRANCH   7   8
HETATM    8  CAM HMZ A 500      22.126  34.190  15.247  1.00 79.03     0.176 C 
HETATM    9  OAC HMZ A 500      22.188  33.269  16.068  1.00 75.09    -0.291 OA
BRANCH   8  10
HETATM   10  CAJ HMZ A 500      23.244  35.252  15.228  1.00 81.01     0.081 C 
BRANCH  10  11
HETATM   11  CAI HMZ A 500      23.556  35.777  13.811  1.00 80.72     0.106 C 
BRANCH  11  12
HETATM   12  CAL HMZ A 500      24.948  36.425  13.753  1.00 82.98     0.186 C 
HETATM   13  OAB HMZ A 500      25.222  37.035  12.710  1.00 84.51    -0.647 OA
HETATM   14  OAD HMZ A 500      25.719  36.293  14.727  1.00 85.67    -0.647 OA
ENDBRANCH  11  12
ENDBRANCH  10  11
ENDBRANCH   8  10
ENDBRANCH   7   8
BRANCH   5  15
HETATM   15  OAK HMZ A 500      17.999  33.790  11.201  1.00 67.03    -0.328 OA
HETATM   16  CAA HMZ A 500      18.418  33.858   9.876  1.00 60.92     0.181 C 
ENDBRANCH   5  15
TORSDOF 5
