REMARK  4 active torsions:
REMARK  status: ('A' for Active; 'I' for Inactive)
REMARK    1  A    between atoms: C3_6  and  O2_7 
REMARK    2  A    between atoms: C1_9  and  O1_10 
REMARK    3  A    between atoms: C10_14  and  C7_12 
REMARK    4  A    between atoms: C10_14  and  C11_15 
ROOT
HETATM    1  O4  KRS A 602     -45.209  34.378  -6.877  1.00 27.23    -0.259 OA
HETATM    2  C8  KRS A 602     -45.564  35.324  -7.550  1.00 21.06     0.297 C 
HETATM    3  C9  KRS A 602     -44.776  36.516  -7.711  1.00 21.29     0.079 A 
HETATM    4  C5  KRS A 602     -45.255  37.570  -8.471  1.00 21.98    -0.034 A 
HETATM    5  C4  KRS A 602     -44.488  38.697  -8.614  1.00 20.27     0.044 A 
HETATM    6  C3  KRS A 602     -43.250  38.759  -8.002  1.00 23.71     0.068 A 
HETATM    7  C2  KRS A 602     -42.768  37.729  -7.257  1.00 21.10     0.074 A 
HETATM    8  C1  KRS A 602     -43.520  36.618  -7.112  1.00 21.10     0.085 A 
HETATM    9  O3  KRS A 602     -46.796  35.285  -8.045  1.00 18.29    -0.311 OA
HETATM   10  C7  KRS A 602     -47.141  36.064  -9.233  1.00 18.27     0.139 C 
HETATM   11  C6  KRS A 602     -46.607  37.467  -9.119  1.00 21.70     0.072 C 
ENDROOT
BRANCH  10  12
HETATM   12  C10 KRS A 602     -48.638  36.011  -9.352  1.00 19.49     0.065 C 
BRANCH  12  13
HETATM   13  C11 KRS A 602     -49.185  34.657  -9.689  1.00 21.70     0.124 C 
HETATM   14  C15 KRS A 602     -50.702  34.656  -9.843  1.00 20.69     0.032 C 
HETATM   15  C14 KRS A 602     -51.124  35.315 -11.124  1.00 20.74     0.005 C 
HETATM   16  C13 KRS A 602     -50.391  34.700 -12.277  1.00 22.07     0.032 C 
HETATM   17  C12 KRS A 602     -48.905  34.756 -12.063  1.00 19.08     0.117 C 
HETATM   18  O5  KRS A 602     -48.559  34.110 -10.841  1.00 19.29    -0.381 OA
HETATM   19  C16 KRS A 602     -48.137  34.062 -13.138  1.00 17.72     0.039 C 
ENDBRANCH  12  13
ENDBRANCH  10  12
BRANCH   6  20
HETATM   20  O2  KRS A 602     -42.520  39.886  -8.166  1.00 24.87    -0.361 OA
HETATM   21  H2  KRS A 602     -42.145  40.077  -7.459  1.00 29.85     0.217 HD
ENDBRANCH   6  20
BRANCH   8  22
HETATM   22  O1  KRS A 602     -43.008  35.607  -6.361  1.00 21.50    -0.360 OA
HETATM   23  H4  KRS A 602     -42.843  35.882  -5.608  1.00 25.80     0.217 HD
ENDBRANCH   8  22
TORSDOF 4
