REMARK  2 active torsions:
REMARK  status: ('A' for Active; 'I' for Inactive)
REMARK    1  A    between atoms: O_1862  and  P1_1858 
REMARK    2  A    between atoms: O_1862  and  P2_1863 
ROOT
HETATM    1  O   POP A 400      58.387  32.755  75.732  1.00 24.23    -0.166 OA
ENDROOT
BRANCH   1   2
HETATM    2  P2  POP A 400      59.932  32.774  75.444  1.00 23.97     0.432 P 
HETATM    3  O4  POP A 400      60.647  33.134  76.670  1.00 24.47    -0.616 OA
HETATM    4  O5  POP A 400      60.240  33.724  74.360  1.00 25.46    -0.616 OA
HETATM    5  O6  POP A 400      60.238  31.270  75.025  1.00 22.62    -0.616 OA
ENDBRANCH   1   2
BRANCH   1   6
HETATM    6  P1  POP A 400      57.433  33.641  76.584  1.00 23.39     0.432 P 
HETATM    7  O1  POP A 400      56.061  33.066  76.465  1.00 26.16    -0.616 OA
HETATM    8  O2  POP A 400      57.561  35.118  75.952  1.00 22.94    -0.616 OA
HETATM    9  O3  POP A 400      57.840  33.711  78.012  1.00 23.62    -0.616 OA
ENDBRANCH   1   6
TORSDOF 2
