REMARK  7 active torsions:
REMARK  status: ('A' for Active; 'I' for Inactive)
REMARK    1  A    between atoms: O_1  and  C_19 
REMARK    2  A    between atoms: O_2  and  C_20 
REMARK    3  A    between atoms: O_7  and  C_33 
REMARK    4  A    between atoms: O_8  and  C_34 
REMARK    5  A    between atoms: O_9  and  C_37 
REMARK    6  A    between atoms: O_10  and  C_38 
REMARK    7  A    between atoms: C_11  and  C_12 
ROOT
HETATM    1  O   UNL     1       3.466   1.558   1.736  1.00  0.00    -0.286 OA
HETATM    2  O   UNL     1       5.261  -1.722  -2.083  1.00  0.00    -0.287 OA
HETATM    3  C   UNL     1       0.706  -0.953  -0.173  1.00  0.00     0.018 A 
HETATM    4  C   UNL     1       2.947  -0.101   0.153  1.00  0.00     0.063 A 
HETATM    5  C   UNL     1       1.175  -1.808  -1.169  1.00  0.00    -0.047 A 
HETATM    6  C   UNL     1       3.417  -0.957  -0.845  1.00  0.00     0.032 A 
HETATM    7  C   UNL     1       1.588  -0.099   0.489  1.00  0.00     0.092 A 
HETATM    8  C   UNL     1       2.528  -1.813  -1.506  1.00  0.00     0.024 A 
HETATM    9  C   UNL     1       3.874   0.807   0.860  1.00  0.00     0.199 A 
HETATM   10  C   UNL     1       5.306   0.796   0.495  1.00  0.00     0.062 A 
HETATM   11  C   UNL     1       5.776  -0.061  -0.503  1.00  0.00     0.035 A 
HETATM   12  C   UNL     1       4.849  -0.969  -1.209  1.00  0.00     0.194 A 
HETATM   13  C   UNL     1       0.258  -2.736  -1.902  1.00  0.00     0.049 C 
HETATM   14  C   UNL     1       6.194   1.651   1.156  1.00  0.00     0.083 A 
HETATM   15  C   UNL     1       7.135  -0.061  -0.839  1.00  0.00     0.053 A 
HETATM   16  C   UNL     1       8.017   0.793  -0.178  1.00  0.00     0.069 A 
HETATM   17  C   UNL     1       7.548   1.647   0.818  1.00  0.00     0.074 A 
ENDROOT
BRANCH   3  18
HETATM   18  C   UNL     1      -0.706  -0.953   0.173  1.00  0.00     0.018 A 
HETATM   19  C   UNL     1      -1.175  -1.808   1.169  1.00  0.00    -0.047 A 
HETATM   20  C   UNL     1      -2.528  -1.813   1.506  1.00  0.00     0.024 A 
HETATM   21  C   UNL     1      -0.258  -2.736   1.902  1.00  0.00     0.049 C 
HETATM   22  C   UNL     1      -3.417  -0.957   0.845  1.00  0.00     0.032 A 
HETATM   23  C   UNL     1      -2.947  -0.101  -0.153  1.00  0.00     0.063 A 
HETATM   24  C   UNL     1      -4.849  -0.969   1.209  1.00  0.00     0.194 A 
HETATM   25  C   UNL     1      -1.588  -0.099  -0.489  1.00  0.00     0.092 A 
HETATM   26  C   UNL     1      -3.874   0.807  -0.859  1.00  0.00     0.199 A 
HETATM   27  O   UNL     1      -3.466   1.558  -1.736  1.00  0.00    -0.286 OA
HETATM   28  C   UNL     1      -5.306   0.796  -0.495  1.00  0.00     0.062 A 
HETATM   29  C   UNL     1      -5.776  -0.061   0.503  1.00  0.00     0.035 A 
HETATM   30  C   UNL     1      -6.194   1.651  -1.156  1.00  0.00     0.083 A 
HETATM   31  C   UNL     1      -7.135  -0.061   0.839  1.00  0.00     0.053 A 
HETATM   32  C   UNL     1      -8.017   0.793   0.178  1.00  0.00     0.069 A 
HETATM   33  C   UNL     1      -7.548   1.647  -0.818  1.00  0.00     0.074 A 
HETATM   34  O   UNL     1      -5.261  -1.722   2.083  1.00  0.00    -0.287 OA
BRANCH  25  35
HETATM   35  O   UNL     1      -1.088   0.724  -1.458  1.00  0.00    -0.359 OA
HETATM   36  H   UNL     1      -1.797   1.199  -1.915  1.00  0.00     0.217 HD
ENDBRANCH  25  35
BRANCH  32  37
HETATM   37  O   UNL     1      -9.338   0.792   0.506  1.00  0.00    -0.361 OA
HETATM   38  H   UNL     1      -9.488   0.141   1.213  1.00  0.00     0.217 HD
ENDBRANCH  32  37
BRANCH  30  39
HETATM   39  O   UNL     1      -5.805   2.512  -2.139  1.00  0.00    -0.360 OA
HETATM   40  H   UNL     1      -6.575   3.010  -2.462  1.00  0.00     0.217 HD
ENDBRANCH  30  39
ENDBRANCH   3  18
BRANCH   7  41
HETATM   41  O   UNL     1       1.088   0.724   1.458  1.00  0.00    -0.359 OA
HETATM   42  H   UNL     1       1.797   1.198   1.916  1.00  0.00     0.217 HD
ENDBRANCH   7  41
BRANCH  14  43
HETATM   43  O   UNL     1       5.805   2.512   2.139  1.00  0.00    -0.360 OA
HETATM   44  H   UNL     1       6.576   3.010   2.462  1.00  0.00     0.217 HD
ENDBRANCH  14  43
BRANCH  16  45
HETATM   45  O   UNL     1       9.338   0.792  -0.506  1.00  0.00    -0.361 OA
HETATM   46  H   UNL     1       9.488   0.141  -1.213  1.00  0.00     0.217 HD
ENDBRANCH  16  45
TORSDOF 7
