REMARK  12 active torsions:
REMARK  status: ('A' for Active; 'I' for Inactive)
REMARK       I    between atoms: C15_3991  and  N1_3990 
REMARK    1  A    between atoms: C2_3999  and  N1_3990 
REMARK       I    between atoms: C15_3991  and  N9_3993 
REMARK    2  A    between atoms: C2_3999  and  C3_4000 
REMARK    3  A    between atoms: C2_3999  and  C5_4023 
REMARK       I    between atoms: C3_4000  and  N28_4002 
REMARK    4  A    between atoms: C19_4003  and  N28_4002 
REMARK    5  A    between atoms: C18_4004  and  C19_4003 
REMARK    6  A    between atoms: C19_4003  and  C20_4015 
REMARK    7  A    between atoms: C17_4005  and  C18_4004 
REMARK    8  A    between atoms: C17_4005  and  S33_4006 
REMARK    9  A    between atoms: C32_4009  and  S33_4006 
REMARK   10  A    between atoms: C20_4015  and  C21_4016 
REMARK   11  A    between atoms: C21_4016  and  C22_4017 
REMARK   12  A    between atoms: C5_4023  and  C6_4024 
ROOT
HETATM    1  C19 C1P D 300      -9.461 -22.404  11.624  1.00 37.57     0.108 C 
ENDROOT
BRANCH   1   2
HETATM    2  C18 C1P D 300      -8.430 -21.760  12.600  1.00 36.09     0.042 C 
BRANCH   2   3
HETATM    3  C17 C1P D 300      -7.024 -21.708  12.021  1.00 40.04     0.129 C 
BRANCH   3   4
HETATM    4  S33 C1P D 300      -5.842 -22.824  12.816  1.00 43.24     0.190 S 
HETATM    5  O34 C1P D 300      -5.386 -22.211  14.079  1.00 44.40    -0.222 OA
HETATM    6  O35 C1P D 300      -6.491 -24.108  13.148  1.00 43.46    -0.222 OA
BRANCH   4   7
HETATM    7  C32 C1P D 300      -4.383 -23.114  11.889  1.00 47.27     0.084 A 
HETATM    8  C31 C1P D 300      -3.344 -23.866  12.496  1.00 50.10     0.011 A 
HETATM    9  C30 C1P D 300      -2.132 -24.124  11.817  1.00 49.38     0.001 A 
HETATM   10  C29 C1P D 300      -1.969 -23.599  10.521  1.00 48.66     0.000 A 
HETATM   11  C37 C1P D 300      -3.003 -22.849   9.925  1.00 47.06     0.001 A 
HETATM   12  C36 C1P D 300      -4.202 -22.600  10.599  1.00 47.60     0.011 A 
ENDBRANCH   4   7
ENDBRANCH   3   4
ENDBRANCH   2   3
ENDBRANCH   1   2
BRANCH   1  13
HETATM   13  N28 C1P D 300      -9.704 -21.550  10.464  1.00 35.90    -0.238 NA
HETATM   14  C3  C1P D 300     -10.871 -20.986  10.269  1.00 35.09     0.274 C 
HETATM   15  O4  C1P D 300     -11.813 -21.165  11.019  1.00 32.73    -0.268 OA
BRANCH  14  16
HETATM   16  C2  C1P D 300     -11.005 -20.108   9.013  1.00 38.02     0.188 C 
BRANCH  16  17
HETATM   17  N1  C1P D 300     -12.262 -20.560   8.394  1.00 39.42    -0.211 NA
HETATM   18  C15 C1P D 300     -12.379 -21.798   7.928  1.00 38.80     0.342 C 
HETATM   19  N9  C1P D 300     -13.558 -22.225   7.426  1.00 40.62    -0.296 N 
HETATM   20  O16 C1P D 300     -11.414 -22.554   7.952  1.00 36.52    -0.245 OA
HETATM   21  C10 C1P D 300     -13.724 -23.581   6.869  1.00 39.90     0.138 C 
HETATM   22  C14 C1P D 300     -14.752 -21.356   7.372  1.00 40.08     0.138 C 
HETATM   23  C11 C1P D 300     -14.882 -24.253   7.588  1.00 40.88     0.167 C 
HETATM   24  O12 C1P D 300     -16.048 -23.429   7.422  1.00 42.43    -0.350 OA
HETATM   25  C13 C1P D 300     -15.971 -22.083   7.923  1.00 40.37     0.167 C 
ENDBRANCH  16  17
BRANCH  16  26
HETATM   26  C5  C1P D 300     -11.145 -18.674   9.477  1.00 35.60     0.034 C 
BRANCH  26  27
HETATM   27  C6  C1P D 300     -11.182 -17.716   8.300  1.00 35.59     0.002 C 
HETATM   28  C7  C1P D 300     -10.063 -18.003   7.292  1.00 34.50     0.000 C 
HETATM   29  C8  C1P D 300     -11.116 -16.273   8.813  1.00 36.18     0.000 C 
ENDBRANCH  26  27
ENDBRANCH  16  26
ENDBRANCH  14  16
ENDBRANCH   1  13
BRANCH   1  30
HETATM   30  C20 C1P D 300      -9.046 -23.775  11.107  1.00 38.89     0.029 C 
BRANCH  30  31
HETATM   31  C21 C1P D 300     -10.304 -24.610  10.840  1.00 42.07     0.028 C 
BRANCH  31  32
HETATM   32  C22 C1P D 300      -9.869 -25.946  10.309  1.00 42.44    -0.022 A 
HETATM   33  C23 C1P D 300      -9.955 -27.083  11.107  1.00 43.57    -0.004 A 
HETATM   34  C24 C1P D 300      -9.525 -28.312  10.617  1.00 43.60    -0.000 A 
HETATM   35  C25 C1P D 300      -9.015 -28.388   9.329  1.00 44.18    -0.000 A 
HETATM   36  C26 C1P D 300      -8.938 -27.244   8.526  1.00 44.46    -0.000 A 
HETATM   37  C27 C1P D 300      -9.357 -26.016   9.024  1.00 44.40    -0.004 A 
ENDBRANCH  31  32
ENDBRANCH  30  31
ENDBRANCH   1  30
TORSDOF 12
