REMARK  12 active torsions:
REMARK  status: ('A' for Active; 'I' for Inactive)
REMARK    1  A    between atoms: C1_1911  and  C2_1914 
REMARK    2  A    between atoms: C2_1914  and  C3_1915 
REMARK    3  A    between atoms: C3_1915  and  C4_1917 
REMARK       I    between atoms: C4_1917  and  N1_1919 
REMARK    4  A    between atoms: C6_1920  and  N1_1919 
REMARK    5  A    between atoms: C11_1925  and  C6_1920 
REMARK    6  A    between atoms: C6_1920  and  C7_1921 
REMARK    7  A    between atoms: C7_1921  and  C8_1922 
REMARK       I    between atoms: C11_1925  and  N2_1927 
REMARK    8  A    between atoms: C12_1928  and  N2_1927 
REMARK    9  A    between atoms: C12_1928  and  C13_1929 
REMARK   10  A    between atoms: C13_1929  and  C14_1930 
REMARK   11  A    between atoms: C14_1930  and  C15_1931 
REMARK   12  A    between atoms: C15_1931  and  N3_1932 
REMARK       I    between atoms: C16_1933  and  N3_1932 
ROOT
HETATM    1  C6  E64 A 301     -11.322  14.331 -40.437  1.00115.93     0.119 C 
ENDROOT
BRANCH   1   2
HETATM    2  C11 E64 A 301     -10.074  13.912 -39.640  1.00105.76     0.289 C 
HETATM    3  N2  E64 A 301      -8.948  13.313 -40.345  1.00127.92    -0.233 NA
HETATM    4  O5  E64 A 301     -10.028  14.102 -38.474  1.00121.58    -0.264 OA
BRANCH   3   5
HETATM    5  C12 E64 A 301      -7.729  12.913 -39.657  1.00153.44     0.129 C 
BRANCH   5   6
HETATM    6  C13 E64 A 301      -7.988  11.886 -38.552  1.00141.08     0.029 C 
BRANCH   6   7
HETATM    7  C14 E64 A 301      -6.714  11.650 -37.736  1.00137.32     0.029 C 
BRANCH   7   8
HETATM    8  C15 E64 A 301      -6.679  12.537 -36.490  1.00121.32     0.129 C 
BRANCH   8   9
HETATM    9  N3  E64 A 301      -6.538  13.938 -36.870  1.00109.54    -0.240 NA
HETATM   10  C16 E64 A 301      -5.317  14.696 -36.627  1.00110.51     0.252 C 
HETATM   11  N5  E64 A 301      -5.256  15.901 -36.978  1.00118.22    -0.111 N 
HETATM   12  N4  E64 A 301      -4.167  14.084 -35.982  1.00108.40    -0.059 NA
ENDBRANCH   8   9
ENDBRANCH   7   8
ENDBRANCH   6   7
ENDBRANCH   5   6
ENDBRANCH   3   5
ENDBRANCH   1   2
BRANCH   1  13
HETATM   13  N1  E64 A 301     -11.153  15.476 -41.330  1.00129.17    -0.209 NA
HETATM   14  C4  E64 A 301     -10.985  16.859 -40.881  1.00134.42     0.287 C 
HETATM   15  O4  E64 A 301     -10.843  17.694 -41.714  1.00142.89    -0.267 OA
BRANCH  14  16
HETATM   16  C3  E64 A 301     -10.983  17.275 -39.401  1.00116.77     0.243 C 
HETATM   17  O3  E64 A 301     -10.049  18.305 -39.197  1.00115.36    -0.213 OA
BRANCH  16  18
HETATM   18  C2  E64 A 301     -12.365  17.752 -38.938  1.00105.03     0.140 C 
BRANCH  18  19
HETATM   19  C1  E64 A 301     -12.893  18.979 -39.704  1.00 97.72     0.188 C 
HETATM   20  O2  E64 A 301     -13.930  19.579 -39.302  1.00 88.41    -0.647 OA
HETATM   21  O1  E64 A 301     -12.333  19.403 -40.749  1.00108.60    -0.647 OA
ENDBRANCH  18  19
ENDBRANCH  16  18
ENDBRANCH  14  16
ENDBRANCH   1  13
BRANCH   1  22
HETATM   22  C7  E64 A 301     -12.527  13.388 -40.668  1.00109.99     0.051 C 
BRANCH  22  23
HETATM   23  C8  E64 A 301     -12.220  11.913 -40.381  1.00129.29     0.006 C 
HETATM   24  C10 E64 A 301     -13.530  11.156 -40.176  1.00101.88     0.000 C 
HETATM   25  C9  E64 A 301     -11.496  11.233 -41.547  1.00136.81     0.000 C 
ENDBRANCH  22  23
ENDBRANCH   1  22
TORSDOF 12
