REMARK  4 active torsions:
REMARK  status: ('A' for Active; 'I' for Inactive)
REMARK    1  A    between atoms: C13_2734  and  N12_2733 
REMARK    2  A    between atoms: N11_2748  and  N12_2733 
REMARK    3  A    between atoms: C13_2734  and  C14_2749 
REMARK    4  A    between atoms: C08_2745  and  C09_2746 
REMARK       I    between atoms: C09_2746  and  N11_2748 
ROOT
HETATM    1  C09 38D A 401      -7.071 -16.095  27.121  0.85 78.90     0.292 C 
HETATM    2  O10 38D A 401      -6.993 -17.318  27.131  0.85 78.90    -0.264 OA
HETATM    3  N11 38D A 401      -8.036 -15.380  27.910  0.85 78.90    -0.138 NA
ENDROOT
BRANCH   3   4
HETATM    4  N12 38D A 401      -8.984 -15.967  28.750  0.85 78.90    -0.092 NA
BRANCH   4   5
HETATM    5  C13 38D A 401     -10.143 -15.125  28.652  0.85 78.90     0.143 C 
BRANCH   5   6
HETATM    6  C14 38D A 401     -11.179 -15.437  29.727  0.85 78.90     0.008 A 
HETATM    7  C15 38D A 401     -11.285 -16.741  30.171  0.85 78.90    -0.001 A 
HETATM    8  C16 38D A 401     -12.216 -17.069  31.144  0.85 78.90     0.011 A 
HETATM    9  C17 38D A 401     -13.040 -16.083  31.662  0.85 78.90     0.059 A 
HETATM   10 CL1  38D A 401     -14.200 -16.522  32.883  0.85 78.90    -0.082 Cl
HETATM   11  C19 38D A 401     -12.947 -14.773  31.223  0.85 78.90     0.023 A 
HETATM   12  C20 38D A 401     -12.015 -14.442  30.248  0.85 78.90     0.056 A 
HETATM   13 CL2  38D A 401     -11.914 -12.787  29.709  0.85 78.90    -0.083 Cl
ENDBRANCH   5   6
ENDBRANCH   4   5
ENDBRANCH   3   4
BRANCH   1  14
HETATM   14  C08 38D A 401      -6.129 -15.276  26.233  0.85 78.90     0.061 A 
HETATM   15  C01 38D A 401      -6.128 -13.887  26.269  0.85 78.90     0.034 A 
HETATM   16  C02 38D A 401      -5.263 -13.175  25.438  0.85 78.90     0.156 A 
HETATM   17  C04 38D A 401      -4.420 -13.865  24.578  0.85 78.90     0.156 A 
HETATM   18  O03 38D A 401      -5.229 -11.764  25.453  0.85 78.90    -0.188 OA
HETATM   19  O07 38D A 401      -3.535 -13.168  23.724  0.85 78.90    -0.188 OA
HETATM   20  C05 38D A 401      -4.437 -15.248  24.548  0.85 78.90     0.030 A 
HETATM   21  C06 38D A 401      -5.294 -15.956  25.372  0.85 78.90     0.007 A 
ENDBRANCH   1  14
TORSDOF 4
