REMARK  7 active torsions:
REMARK  status: ('A' for Active; 'I' for Inactive)
REMARK    1  A    between atoms: C1'_2205  and  N1_2206 
REMARK    2  A    between atoms: C4'_2215  and  C5'_2216 
REMARK    3  A    between atoms: C5'_2216  and  O5'_2217 
REMARK    4  A    between atoms: C17_2218  and  O5'_2217 
REMARK    5  A    between atoms: C17_2218  and  C24_2225 
REMARK    6  A    between atoms: C17_2218  and  C18_2231 
REMARK    7  A    between atoms: C17_2218  and  C30_2219 
ROOT
HETATM    1  C17 DUX A1160      41.140 -10.542  -8.348  1.00 44.81     0.149 C 
ENDROOT
BRANCH   1   2
HETATM    2  C24 DUX A1160      40.038 -11.031  -7.431  1.00 41.89     0.010 A 
HETATM    3  C25 DUX A1160      39.548 -10.275  -6.365  1.00 40.05    -0.001 A 
HETATM    4  C26 DUX A1160      38.509 -10.752  -5.564  1.00 37.45    -0.000 A 
HETATM    5  C27 DUX A1160      37.909 -11.971  -5.842  1.00 36.61    -0.000 A 
HETATM    6  C28 DUX A1160      38.369 -12.744  -6.904  1.00 38.72    -0.000 A 
HETATM    7  C29 DUX A1160      39.422 -12.275  -7.704  1.00 41.30    -0.001 A 
ENDBRANCH   1   2
BRANCH   1   8
HETATM    8  O5' DUX A1160      40.521 -10.439  -9.666  1.00 46.26    -0.344 OA
BRANCH   8   9
HETATM    9  C5' DUX A1160      39.152  -9.953  -9.822  1.00 42.70     0.176 C 
BRANCH   9  10
HETATM   10  C4' DUX A1160      38.522 -10.505 -11.094  1.00 41.66     0.179 C 
HETATM   11  C3' DUX A1160      37.380  -9.638 -11.556  1.00 40.14     0.195 C 
HETATM   12  C2' DUX A1160      36.218 -10.547 -11.964  1.00 38.62     0.092 C 
HETATM   13  F3' DUX A1160      37.829  -8.962 -12.615  1.00 38.68    -0.235 F 
HETATM   14  C1' DUX A1160      36.522 -11.802 -11.163  1.00 38.84     0.211 C 
HETATM   15  O4' DUX A1160      37.944 -11.828 -10.984  1.00 43.13    -0.333 OA
BRANCH  14  16
HETATM   16  N1  DUX A1160      35.940 -11.840  -9.817  1.00 38.48    -0.256 N 
HETATM   17  C2  DUX A1160      35.849 -13.104  -9.174  1.00 37.38     0.354 A 
HETATM   18  N3  DUX A1160      35.303 -13.186  -7.936  1.00 38.23    -0.153 NA
HETATM   19  O2  DUX A1160      36.272 -14.117  -9.780  1.00 33.48    -0.244 OA
HETATM   20  C4  DUX A1160      34.865 -12.083  -7.278  1.00 41.07     0.285 A 
HETATM   21  C5  DUX A1160      34.951 -10.821  -7.863  1.00 41.28     0.082 A 
HETATM   22  O4  DUX A1160      34.402 -12.157  -6.131  1.00 38.35    -0.265 OA
HETATM   23  C6  DUX A1160      35.494 -10.732  -9.149  1.00 41.32     0.087 A 
ENDBRANCH  14  16
ENDBRANCH   9  10
ENDBRANCH   8   9
ENDBRANCH   1   8
BRANCH   1  24
HETATM   24  C18 DUX A1160      42.287 -11.539  -8.474  1.00 45.61     0.010 A 
HETATM   25  C23 DUX A1160      42.593 -12.466  -7.456  1.00 46.97    -0.001 A 
HETATM   26  C22 DUX A1160      43.647 -13.385  -7.564  1.00 46.23    -0.000 A 
HETATM   27  C21 DUX A1160      44.440 -13.407  -8.711  1.00 45.81    -0.000 A 
HETATM   28  C20 DUX A1160      44.174 -12.479  -9.729  1.00 47.29    -0.000 A 
HETATM   29  C19 DUX A1160      43.101 -11.563  -9.624  1.00 46.71    -0.001 A 
ENDBRANCH   1  24
BRANCH   1  30
HETATM   30  C30 DUX A1160      41.722  -9.167  -8.013  1.00 48.86     0.010 A 
HETATM   31  C35 DUX A1160      42.493  -8.999  -6.843  1.00 50.56    -0.001 A 
HETATM   32  C34 DUX A1160      43.066  -7.753  -6.536  1.00 51.51    -0.000 A 
HETATM   33  C33 DUX A1160      42.872  -6.658  -7.374  1.00 51.40    -0.000 A 
HETATM   34  C32 DUX A1160      42.112  -6.810  -8.539  1.00 50.52    -0.000 A 
HETATM   35  C31 DUX A1160      41.558  -8.049  -8.870  1.00 47.79    -0.001 A 
ENDBRANCH   1  30
TORSDOF 7
