REMARK  4 active torsions:
REMARK  status: ('A' for Active; 'I' for Inactive)
REMARK    1  A    between atoms: C5_7  and  S1_2 
REMARK    2  A    between atoms: C2_12  and  N1_13 
REMARK    3  A    between atoms: C7_14  and  N1_13 
REMARK    4  A    between atoms: C12_22  and  C13_24 
ROOT
HETATM    1  C7  D65 A1001     -28.782  -7.957 -14.065  1.00 42.81     0.150 A 
HETATM    2  C8  D65 A1001     -29.896  -8.223 -14.885  1.00 45.32     0.078 A 
HETATM    3  C9  D65 A1001     -29.762  -8.972 -16.051  1.00 44.19     0.053 A 
HETATM    4  C10 D65 A1001     -30.970  -9.238 -16.910  1.00 44.49     0.071 C 
HETATM    5  N2  D65 A1001     -27.612  -8.476 -14.482  1.00 39.29    -0.041 N 
HETATM    6  C11 D65 A1001     -27.519  -9.185 -15.601  1.00 38.90     0.753 A 
HETATM    7  N5  D65 A1001     -28.559  -9.459 -16.412  1.00 41.29    -0.066 NA
HETATM    8  N3  D65 A1001     -26.387  -8.340 -13.822  1.00 35.44    -0.128 NA
HETATM    9  C12 D65 A1001     -25.611  -9.028 -14.677  1.00 33.54     0.237 A 
HETATM   10  N4  D65 A1001     -26.231  -9.562 -15.754  1.00 35.95    -0.037 NA
ENDROOT
BRANCH   1  11
HETATM   11  N1  D65 A1001     -28.766  -7.319 -12.850  1.00 41.42    -0.340 N 
HETATM   12  H5  D65 A1001     -27.834  -7.204 -12.633  1.00 49.71     0.167 HD
BRANCH  11  13
HETATM   13  C2  D65 A1001     -29.770  -6.633 -12.251  1.00 39.59     0.033 C 
HETATM   14  C1  D65 A1001     -31.083  -7.083 -12.221  1.00 38.64     0.031 C 
HETATM   15  C6  D65 A1001     -32.082  -6.299 -11.695  1.00 37.50     0.029 C 
HETATM   16  C5  D65 A1001     -31.776  -5.093 -11.072  1.00 36.75     0.099 C 
HETATM   17  C4  D65 A1001     -30.450  -4.671 -11.022  1.00 37.43     0.029 C 
HETATM   18  C3  D65 A1001     -29.456  -5.450 -11.591  1.00 38.67     0.031 C 
BRANCH  16  19
HETATM   19  S1  D65 A1001     -32.978  -4.196 -10.398  1.00 42.83     0.311 SA
HETATM   20  F3  D65 A1001     -33.877  -4.429 -11.693  1.00 67.37    -0.093 F 
HETATM   21  F4  D65 A1001     -32.366  -2.880 -11.059  1.00 56.30    -0.093 F 
HETATM   22  F5  D65 A1001     -34.140  -3.328  -9.746  1.00 82.59    -0.093 F 
HETATM   23  F6  D65 A1001     -32.076  -3.963  -9.101  1.00 43.50    -0.093 F 
HETATM   24  F7  D65 A1001     -33.589  -5.514  -9.735  1.00 40.96    -0.093 F 
ENDBRANCH  16  19
ENDBRANCH  11  13
ENDBRANCH   1  11
BRANCH   9  25
HETATM   25  C13 D65 A1001     -24.149  -9.215 -14.427  1.00 31.61     0.303 C 
HETATM   26  F1  D65 A1001     -23.743  -8.365 -13.502  1.00 36.48    -0.198 F 
HETATM   27  C14 D65 A1001     -23.972 -10.638 -13.912  1.00 25.23     0.099 C 
HETATM   28  F2  D65 A1001     -23.463  -9.041 -15.542  1.00 32.25    -0.198 F 
ENDBRANCH   9  25
TORSDOF 4
