REMARK  7 active torsions:
REMARK  status: ('A' for Active; 'I' for Inactive)
REMARK    1  A    between atoms: C_2167  and  CA_2166 
REMARK    2  A    between atoms: CA_2166  and  CB_2170 
REMARK    3  A    between atoms: CB_2170  and  CG_2171 
REMARK    4  A    between atoms: CD_2172  and  CG_2171 
REMARK    5  A    between atoms: C5'_2174  and  CD_2172 
REMARK    6  A    between atoms: C4'_2175  and  C5'_2174 
REMARK    7  A    between atoms: C1'_2181  and  N9_2182 
ROOT
HETATM    1  C4' SFG A 300      23.728  17.613  17.434  1.00  8.67     0.153 C 
HETATM    2  O4' SFG A 300      24.741  17.777  18.480  1.00  9.91    -0.334 OA
HETATM    3  C3' SFG A 300      24.157  16.420  16.643  1.00  8.67     0.214 C 
HETATM    4  O3' SFG A 300      24.221  16.766  15.297  1.00 11.14    -0.218 OA
HETATM    5  C2' SFG A 300      25.457  15.995  17.249  1.00  9.95     0.234 C 
HETATM    6  O2' SFG A 300      26.395  15.504  16.353  1.00 11.46    -0.216 OA
HETATM    7  C1' SFG A 300      25.923  17.226  17.993  1.00  9.58     0.241 C 
ENDROOT
BRANCH   1   8
HETATM    8  C5' SFG A 300      22.442  17.528  18.088  1.00 10.72     0.071 C 
BRANCH   8   9
HETATM    9  CD  SFG A 300      21.144  17.337  17.321  1.00 10.69     0.304 C 
HETATM   10  NE  SFG A 300      20.175  16.625  18.154  1.00 10.97     0.616 N 
BRANCH   9  11
HETATM   11  CG  SFG A 300      20.534  18.636  16.887  1.00 10.49     0.042 C 
BRANCH  11  12
HETATM   12  CB  SFG A 300      21.285  19.420  15.753  1.00 10.23     0.053 C 
BRANCH  12  13
HETATM   13  CA  SFG A 300      20.767  20.861  15.424  1.00  9.47     0.387 C 
HETATM   14  N   SFG A 300      20.983  21.701  16.528  1.00 11.07     0.628 N 
BRANCH  13  15
HETATM   15  C   SFG A 300      19.287  20.897  15.080  1.00 11.79     0.224 C 
HETATM   16  O   SFG A 300      18.486  21.524  15.820  1.00 14.63    -0.646 OA
HETATM   17  OXT SFG A 300      18.845  20.341  14.007  1.00 11.51    -0.646 OA
ENDBRANCH  13  15
ENDBRANCH  12  13
ENDBRANCH  11  12
ENDBRANCH   9  11
ENDBRANCH   8   9
ENDBRANCH   1   8
BRANCH   7  18
HETATM   18  N9  SFG A 300      26.858  16.968  19.103  1.00  9.43    -0.270 N 
HETATM   19  C4  SFG A 300      27.977  17.686  19.254  1.00  9.49     0.170 A 
HETATM   20  C5  SFG A 300      28.598  17.194  20.409  1.00  9.39     0.155 A 
HETATM   21  N3  SFG A 300      28.561  18.687  18.561  1.00  9.36    -0.205 NA
HETATM   22  C6  SFG A 300      29.821  17.737  20.826  1.00  8.99     0.206 A 
HETATM   23  N7  SFG A 300      27.817  16.203  20.888  1.00 10.32    -0.219 NA
HETATM   24  N6  SFG A 300      30.478  17.256  21.919  1.00 10.74    -0.125 N 
HETATM   25  N1  SFG A 300      30.348  18.740  20.101  1.00  9.42    -0.202 NA
HETATM   26  C2  SFG A 300      29.725  19.192  18.996  1.00 10.08     0.202 A 
HETATM   27  C8  SFG A 300      26.753  16.074  20.092  1.00  9.75     0.182 A 
ENDBRANCH   7  18
TORSDOF 7
