REMARK  8 active torsions:
REMARK  status: ('A' for Active; 'I' for Inactive)
REMARK    1  A    between atoms: C1_2  and  O1_1 
REMARK    2  A    between atoms: C1_2  and  C2_3 
REMARK    3  A    between atoms: C2_3  and  O2_4 
REMARK    4  A    between atoms: C3_5  and  O3_6 
REMARK    5  A    between atoms: C4_7  and  O4_8 
REMARK    6  A    between atoms: C5_9  and  C6_11 
REMARK    7  A    between atoms: C6_11  and  O6_12 
REMARK    8  A    between atoms: O6_12  and  P_13 
ROOT
HETATM    1  C2  F6P A 580      13.796  14.265  12.994  1.00 32.55     0.213 C 
HETATM    2  C3  F6P A 580      13.512  13.546  11.646  1.00 29.54     0.213 C 
HETATM    3  C4  F6P A 580      14.159  12.215  11.922  1.00 27.11     0.183 C 
HETATM    4  C5  F6P A 580      14.018  11.963  13.436  1.00 27.66     0.181 C 
HETATM    5  O5  F6P A 580      13.638  13.228  14.021  1.00 31.07    -0.341 OA
ENDROOT
BRANCH   4   6
HETATM    6  C6  F6P A 580      15.476  11.629  13.728  1.00 27.28     0.217 C 
BRANCH   6   7
HETATM    7  O6  F6P A 580      15.315  10.663  14.618  1.00 26.71    -0.280 OA
BRANCH   7   8
HETATM    8  P   F6P A 580      16.626   9.794  14.611  1.00 27.54     0.422 P 
HETATM    9  O1P F6P A 580      16.592   8.732  13.593  1.00 25.86    -0.617 OA
HETATM   10  O2P F6P A 580      16.320   9.195  16.073  1.00 26.83    -0.617 OA
HETATM   11  O3P F6P A 580      18.078  10.382  14.704  1.00 24.86    -0.617 OA
ENDBRANCH   7   8
ENDBRANCH   6   7
ENDBRANCH   4   6
BRANCH   3  12
HETATM   12  O4  F6P A 580      13.722  11.127  11.196  1.00 27.11    -0.390 OA
HETATM   13  HO4 F6P A 580      14.486  10.501  11.041  1.00 27.11     0.210 HD
ENDBRANCH   3  12
BRANCH   2  14
HETATM   14  O3  F6P A 580      14.201  14.111  10.549  1.00 27.71    -0.387 OA
HETATM   15  HO3 F6P A 580      13.588  14.724  10.050  1.00 27.71     0.210 HD
ENDBRANCH   2  14
BRANCH   1  16
HETATM   16  C1  F6P A 580      15.251  14.754  13.031  1.00 33.69     0.235 C 
BRANCH  16  17
HETATM   17  O1  F6P A 580      15.417  15.274  14.372  1.00 44.70    -0.395 OA
HETATM   18  HO1 F6P A 580      15.615  14.521  15.000  1.00 44.70     0.209 HD
ENDBRANCH  16  17
ENDBRANCH   1  16
BRANCH   1  19
HETATM   19  O2  F6P A 580      12.901  15.441  13.235  1.00 32.25    -0.362 OA
HETATM   20  HO2 F6P A 580      12.458  15.704  12.378  1.00 32.25     0.213 HD
ENDBRANCH   1  19
TORSDOF 8
